test/data/matpower/case5_ACDC_SPM_95cc_RES.m
%% MATPOWER Case Format : Version 2
function mpc = case5_acdc()
mpc.version = '2';

%% stochastic data
%column_names%  dst         pa      pb
mpc.sdata = [
                'Normal'    0.0     0.0;
				'Normal'    0.0     0.0;
                %'Beta'		0.4134	1.7147;
];

%% RES data
%column_names%  RES_bus dst_id 
mpc.RES = [ 	2 2;
				3 2;
				4 2;
				5 2;
];

%%-----  Power Flow Data  -----%%
%% system MVA base
mpc.baseMVA = 100;
%% bus data
%    bus_i    type    Pd    Qd    Gs    Bs    area    Vm    Va    baseKV    zone    Vmax    Vmin
mpc.bus = [
	1	3	0.0	0.0	0.0	0.0	1	1.0	0.0	345.0	1	1.1	0.9				
	2	2	60.0	10.0	0.0	0.0	1	1.0	0.0	345.0	1	1.1	0.9				
	3	1	45.0	15.0	0.0	0.0	1	1.0	0.0	345.0	1	1.1	0.9				
	4	1	40.0	5.0	0.0	0.0	1	1.0	0.0	345.0	1	1.1	0.9				
	5	1	60.0	10.0	0.0	0.0	1	1.0	0.0	345.0	1	1.1	0.9				
];

%% generator data
%    bus    Pg    Qg    Qmax    Qmin    Vg    mBase    status    Pmax    Pmin    Pc1    Pc2    Qc1min    Qc1max    Qc2min    Qc2max    ramp_agc    ramp_10    ramp_30    ramp_q    apf
mpc.gen = [
	1	0.0	0.0	500.0	-500.0	1.0	100.0	1	250.0	00.0	0.0	0.0	0.0	0.0	0.0	0.0	0.0	0.0	0.0	0.0	0.0				
	2	40.0	0.0	300.0	-300.0	1.0	100.0	1	300.0	00.0	0.0	0.0	0.0	0.0	0.0	0.0	0.0	0.0	0.0	0.0	0.0				
];

%% branch data
%    f_bus    t_bus    r    x    b    rateA    rateB    rateC    ratio    angle    status    angmin    angmax
mpc.branch = [
	1	2	0.02	0.06	0.06	100.0	100.0	100.0	0	0	1	-59.99999999999999	59.99999999999999								
	1	3	0.08	0.24	0.05	100.0	100.0	100.0	0	0	1	-59.99999999999999	59.99999999999999							
	2	3	0.06	0.18	0.04	100.0	100.0	100.0	0	0	1	-59.99999999999999	59.99999999999999								
	2	4	0.06	0.18	0.04	100.0	100.0	100.0	0	0	1	-59.99999999999999	59.99999999999999								
	2	5	0.04	0.12	0.03	100.0	100.0	100.0	0	0	1	-59.99999999999999	59.99999999999999								
	3	4	0.01	0.03	0.02	100.0	100.0	100.0	0	0	1	-59.99999999999999	59.99999999999999								
	4	5	0.08	0.24	0.05	100.0	100.0	100.0	0	0	1	-59.99999999999999	59.99999999999999	
	%1	5	0.08	0.24	0.05	100.0	100.0	100.0	0	0	1	-59.99999999999999	59.99999999999999 %ustekinin 8 kati					
];

%%-----  OPF Data  -----%%
%% cost data
%    1    startup    shutdown    n    x1    y1    ...    xn    yn
%    2    startup    shutdown    n    c(n-1)    ...    c0
mpc.gencost = [
	%2	0.0	0.0	2	24.804734	0.0
	%2	0.0	0.0	2	34.844643	0.0
	2	0.0	0.0	2	100	0.0
	2	0.0	0.0	2	200	0.0
];

%column_names% μ dst_id λvmax σ λvmin 
mpc.bus_data = {
	0.0	0	3.00000	0.0	3.00000
	60.0	1	3.00000	6.0	3.00000
	45.0	1	3.00000	4.5	3.00000
	40.0	1	3.00000	4.0	3.00000
	60.0	1	3.00000	6.0	3.00000
};

%column_names% λqmax λpmax λpmin λqmin 
mpc.gen_data = {
	3.00000	3.00000	3.00000	3.00000
	3.00000	3.00000	3.00000	3.00000
};

%column_names% λcmax c_rating_a 
mpc.branch_data = {
	3.00000	100.0
	3.00000	100.0
	3.00000	100.0
	3.00000	100.0
	3.00000	100.0
	3.00000	100.0
	3.00000	100.0
	%3.00000	100.0
};

mpc.dcpol = 2;

%column_names% dVdcset Vtar Pacmax filter reactor Vdcset Vmmax xtf Imax λvmax status Pdcset islcc LossA Qacmin rc rtf xc busdc_i busac_i tm type_dc Q_g LossB basekVac LossCrec droop Pacmin Qacmax type_ac Vmmin P_g transformer λvmin bf LossCinv 
mpc.convdc = {
	0	1	100	1	1	1.0079	1.1	0.01	1.1	3.00000	1	-58.6274	0	1.103	-50	0.01	0.01	0.01	1	2	1	1	-40	0.887	345	2.885	0.005	-100	50	1	0.9	-60	1	3.00000	0.01	2.885
	0	1	100	1	1	1.0	1.1	0.01	1.1	3.00000	1	21.9013	0	1.103	-50	0.01	0.01	0.01	2	3	1	2	0	0.887	345	2.885	0.007	-100	50	1	0.9	0	1	3.00000	0.01	2.885
	0	1	100	1	1	0.9978	1.1	0.01	1.1	3.00000	1	36.1856	0	1.103	-50	0.01	0.01	0.01	3	5	1	1	5	0.887	345	2.885	0.005	-100	50	1	0.9	35	1	3.00000	0.01	2.885
};

%column_names% c r status λcmax rateB fbusdc rateA l rateC tbusdc 
mpc.branchdc = {
	0	0.052	1	3.00000	100	1	100	0	100	2
	0	0.052	1	3.00000	100	2	100	0	100	3	
	%0	0.052	1	3.00000	100	2	100	0	100	3
	%0	0.416	1	3.00000	100	2	100	0	100	3
	%0	0.073	1	3.00000	100	1	100	0	100	3
	0	0.073	1	3.00000	100	1	100	0	100	3
};

%column_names% Vdc λvmax Cdc basekVdc busdc_i grid λvmin Vdcmax Vdcmin Pdc 
mpc.busdc = {
	1	3.00000	0	345	1	1	3.00000	1.1	0.9	0
	1	3.00000	0	345	2	1	3.00000	1.1	0.9	0
	1	3.00000	0	345	3	1	3.00000	1.1	0.9	0
};

%column_names% 				prob    branch_id1  branchdc_id1    convdc_id1    
mpc.contingencies = [
                             0.935    0     0      0;                             
                             0.005    1     0      0;
							 0.005    2     0      0; 
							 0.005    3     0      0; 
							 0.005    4     0      0; 
							 0.005    5     0      0;   
							 0.005    6     0      0; 
							 0.005    7     0      0;    
							 0.005    0     1      0;   
							 0.005    0     2      0; 
							 0.005    0     3      0;     
							 0.005    0     0      1;   
							 0.005    0     0      2; 
							 0.005    0     0      3;                              
 ];

